data_image0
_chemical_formula_structural       C12PC17PC4SC12Ag
_chemical_formula_sum              "C45 P2 S1 Ag1"
_cell_length_a       12.336457
_cell_length_b       12.336457
_cell_length_c       15.0
_cell_angle_alpha    90.0
_cell_angle_beta     90.0
_cell_angle_gamma    119.99999999999999

_space_group_name_H-M_alt    "P 1"
_space_group_IT_number       1

loop_
  _space_group_symop_operation_xyz
  'x, y, z'

loop_
  _atom_site_type_symbol
  _atom_site_label
  _atom_site_symmetry_multiplicity
  _atom_site_fract_x
  _atom_site_fract_y
  _atom_site_fract_z
  _atom_site_occupancy
  C   C1        1.0  0.9986478801005945  0.9980918007499461  0.26460843066666667  1.0000
  C   C2        1.0  0.9975716637652025  0.19898587324673153  0.27287513399999996  1.0000
  C   C3        1.0  0.9968988521059696  0.39888550048926574  0.2556159986666667  1.0000
  C   C4        1.0  0.9985294648163736  0.5983319807202678  0.243578446  1.0000
  C   C5        1.0  0.9991131064752488  0.7977977819998606  0.25119271666666665  1.0000
  C   C6        1.0  0.19754369908744426  0.9945581895050087  0.25695391333333334  1.0000
  C   C7        1.0  0.19728081357277888  0.19190895466430974  0.2827917046666667  1.0000
  C   C8        1.0  0.19438062465918113  0.40185860944372087  0.279658148  1.0000
  C   C9        1.0  0.1991644347203017  0.597015923592375  0.242325268  1.0000
  C   C10       1.0  0.1992091870265743  0.7964091796791077  0.24316035266666666  1.0000
  C   C11       1.0  0.39822072701891487  0.9969490227830538  0.24247801133333333  1.0000
  C   C12       1.0  0.39156038785994324  0.19046174241721295  0.23535804  1.0000
  P   P1        1.0  0.41898508621025343  0.5788713258067669  0.20935758933333334  1.0000
  C   C13       1.0  0.4001195013667897  0.7977313751383958  0.236068842  1.0000
  C   C14       1.0  0.5991268805731254  0.0012446360789804092  0.24452053666666668  1.0000
  C   C15       1.0  0.5972729351517797  0.2003526769093782  0.23452575533333334  1.0000
  C   C16       1.0  0.6029962685685737  0.4038261533853133  0.21700713  1.0000
  C   C17       1.0  0.5976194316444692  0.6041310387328281  0.23916098533333333  1.0000
  C   C18       1.0  0.6033895838509417  0.8048967585142213  0.24230425  1.0000
  C   C19       1.0  0.8001884008788944  0.0015507093067714003  0.25693788  1.0000
  C   C20       1.0  0.7980603260021644  0.20032206574897196  0.251795636  1.0000
  C   C21       1.0  0.7978291792089222  0.3998830916617571  0.23946281199999997  1.0000
  C   C22       1.0  0.7984848165586406  0.6003373617933507  0.238760188  1.0000
  C   C23       1.0  0.8012119775737837  0.8010779722612332  0.250643208  1.0000
  C   C24       1.0  0.06463306254358417  0.13102137134628475  0.2754402086666667  1.0000
  C   C25       1.0  0.06202009342001644  0.3319778726764121  0.27141509199999997  1.0000
  C   C26       1.0  0.06499097934957601  0.5316289340017046  0.24676823066666667  1.0000
  C   C27       1.0  0.06580559459535584  0.731152451321322  0.24556981  1.0000
  C   C28       1.0  0.06456042877856616  0.9299724407953346  0.25901868666666666  1.0000
  C   C29       1.0  0.26325059928790756  0.12705527824390783  0.261446548  1.0000
  P   P2        1.0  0.27398664206092255  0.3378307286052977  0.33594842733333335  1.0000
  C   C30       1.0  0.2623662591808594  0.5270073432972737  0.24874477933333333  1.0000
  C   C31       1.0  0.2662542437587345  0.7302160983817555  0.237880478  1.0000
  C   C32       1.0  0.26497980955872447  0.9293505739110338  0.24698513666666663  1.0000
  C   C33       1.0  0.4640231819836153  0.13120333196865913  0.23713588399999996  1.0000
  S   S1        1.0  0.44901389870443686  0.3326003217568288  0.182578768  1.0000
  C   C34       1.0  0.4722084420173269  0.7368143300760904  0.23206961133333334  1.0000
  C   C35       1.0  0.4658641553829264  0.9317288927806082  0.24054019066666665  1.0000
  C   C36       1.0  0.6646296001459482  0.13467685626881076  0.24378007666666665  1.0000
  C   C37       1.0  0.6639191703295647  0.3337243758473524  0.23001540933333334  1.0000
  C   C38       1.0  0.6646210291423813  0.5360943660421683  0.228938516  1.0000
  C   C39       1.0  0.6685944971283433  0.736230758030516  0.24361556866666667  1.0000
  C   C40       1.0  0.6678457116329334  0.9368495856134517  0.24871092333333333  1.0000
  C   C41       1.0  0.8654751181460417  0.13398260612079502  0.26126351800000003  1.0000
  C   C42       1.0  0.8641132541077103  0.33308214707510275  0.24928158333333328  1.0000
  C   C43       1.0  0.8647211672015901  0.5328404672706639  0.24031311933333335  1.0000
  C   C44       1.0  0.8663480405070343  0.7329166581214182  0.248085358  1.0000
  C   C45       1.0  0.8665927411535453  0.9338304859738648  0.2581954873333333  1.0000
  Ag  Ag1       1.0  0.48180202606527966  0.516005773305448  0.358765584  1.0000
